Version 4
SHEET 1 1876 1396
WIRE -48 384 -160 384
WIRE 160 384 16 384
WIRE 1376 416 1280 416
WIRE -256 432 -336 432
WIRE 1280 432 1280 416
WIRE -336 448 -336 432
WIRE 1376 448 1376 416
WIRE -256 464 -256 432
WIRE -160 512 -160 384
WIRE -48 512 -160 512
WIRE 160 512 160 384
WIRE 160 512 32 512
WIRE 1280 560 1280 512
WIRE 1280 560 1072 560
WIRE -336 576 -336 528
WIRE -32 576 -336 576
WIRE 1072 592 1072 560
WIRE -784 640 -800 640
WIRE -656 640 -704 640
WIRE -320 640 -576 640
WIRE -32 640 -32 576
WIRE -800 656 -800 640
WIRE -160 656 -160 512
WIRE -160 656 -272 656
WIRE -128 656 -160 656
WIRE 160 688 160 512
WIRE 192 688 160 688
WIRE 240 688 192 688
WIRE 384 688 320 688
WIRE 592 688 384 688
WIRE 800 688 592 688
WIRE 160 704 160 688
WIRE 160 704 96 704
WIRE 592 704 592 688
WIRE 848 720 784 720
WIRE 1264 736 1200 736
WIRE 160 752 96 752
WIRE 800 752 800 688
WIRE 848 752 800 752
WIRE -128 768 -224 768
WIRE 160 784 160 752
WIRE 192 784 160 784
WIRE 240 784 192 784
WIRE 384 784 320 784
WIRE 592 784 592 768
WIRE 592 784 384 784
WIRE 784 784 784 720
WIRE 784 784 592 784
WIRE -320 800 -320 640
WIRE -160 800 -320 800
WIRE -128 800 -160 800
WIRE -784 816 -800 816
WIRE -656 816 -704 816
WIRE -272 816 -272 656
WIRE -272 816 -576 816
WIRE -800 832 -800 816
WIRE 1280 832 1200 832
WIRE -32 848 -32 816
WIRE -336 864 -464 864
WIRE -224 864 -224 768
WIRE -224 864 -336 864
WIRE -464 912 -464 864
WIRE -336 912 -336 864
WIRE 1072 912 1072 880
WIRE 1280 944 1280 832
WIRE -160 976 -160 800
WIRE -48 976 -160 976
WIRE 160 976 160 784
WIRE 160 976 32 976
WIRE -464 992 -464 976
WIRE -336 992 -464 992
WIRE -336 1008 -336 992
WIRE 1280 1056 1280 1024
WIRE -160 1072 -160 976
WIRE -48 1072 -160 1072
WIRE 160 1072 160 976
WIRE 160 1072 16 1072
FLAG -800 656 0
FLAG -800 832 0
FLAG -336 1008 0
FLAG -256 464 0
FLAG 192 784 OUTP
FLAG 192 688 OUTN
FLAG -32 848 0
FLAG 384 752 0
FLAG 384 848 0
FLAG 1376 448 0
FLAG 1072 912 0
FLAG 1264 736 ADC_OUT
FLAG 1280 1056 0
SYMBOL Voltage -336 544 R180
WINDOW 0 24 96 Left 2
WINDOW 3 24 16 Left 2
SYMATTR InstName V_VCC
SYMATTR Value 3.3
SYMBOL Voltage -336 896 R0
SYMATTR InstName V_VMID_2
SYMATTR Value 1.25
SYMBOL Voltage -688 640 R90
WINDOW 0 -32 56 VBottom 2
WINDOW 3 32 56 VTop 2
SYMATTR InstName V_VMID_1
SYMATTR Value 1.25
SYMBOL Voltage -688 816 R90
WINDOW 0 -32 56 VBottom 2
WINDOW 3 32 56 VTop 2
SYMATTR InstName V_IN
SYMATTR Value SINE(1.25 0.5 500k) AC 1
SYMBOL Res 336 768 R90
WINDOW 0 0 56 VBottom 2
WINDOW 3 32 56 VTop 2
SYMATTR InstName R_out_p
SYMATTR Value {Rk}
SYMBOL Res 336 672 R90
WINDOW 0 0 56 VBottom 2
WINDOW 3 32 56 VTop 2
SYMATTR InstName R_out_n
SYMATTR Value {Rk}
SYMBOL Res 48 496 R90
WINDOW 0 0 56 VBottom 2
WINDOW 3 32 56 VTop 2
SYMATTR InstName Rf_top
SYMATTR Value {Rf}
SYMBOL Cap 16 368 R90
WINDOW 0 0 32 VBottom 2
WINDOW 3 32 32 VTop 2
SYMATTR InstName Cf_top
SYMATTR Value {Cf}
SYMBOL Cap 16 1056 R90
WINDOW 0 0 32 VBottom 2
WINDOW 3 32 32 VTop 2
SYMATTR InstName Cf_bot
SYMATTR Value {Cf}
SYMBOL Res 48 960 R90
WINDOW 0 0 56 VBottom 2
WINDOW 3 32 56 VTop 2
SYMATTR InstName Rf_bot
SYMATTR Value {Rf}
SYMBOL Cap -480 912 R0
SYMATTR InstName C_VOCM
SYMATTR Value 1µ
SYMBOL Res -560 800 R90
WINDOW 0 0 56 VBottom 2
WINDOW 3 32 56 VTop 2
SYMATTR InstName Rg_sig
SYMATTR Value {Rg}
SYMBOL Res -560 624 R90
WINDOW 0 0 56 VBottom 2
WINDOW 3 32 56 VTop 2
SYMATTR InstName Rg_bias
SYMATTR Value {Rg}
SYMBOL THS4551 -64 720 R0
SYMATTR InstName U2
SYMBOL Cap 576 704 R0
SYMATTR InstName C_adc_diff
SYMATTR Value {Cdiff}
SYMBOL Cap 368 784 R0
SYMATTR InstName C_out_p
SYMATTR Value {Cse}
SYMBOL Cap 368 688 R0
SYMATTR InstName C_out_n
SYMATTR Value {Cse}
SYMBOL ADC/AD7380 1104 736 R0
SYMATTR InstName U1
SYMBOL Voltage 1280 528 R180
WINDOW 0 24 96 Left 2
WINDOW 3 24 16 Left 2
SYMATTR InstName V_VREF
SYMATTR Value 2.5
SYMBOL Voltage 1280 928 R0
SYMATTR InstName V_CS
SYMATTR Value PULSE(3.3 0 500n 1n 1n 20n 250n)
TEXT -776 168 Left 2 !.include ths4551.lib
TEXT -776 1136 Left 2 !.param Rf=2k Rg=400 Rk=33
TEXT -776 1168 Left 2 !.param Cf=100p Cse=68p Cdiff=330p
TEXT -776 1200 Left 2 ;.param Vref=2.5 Nbits=16 LSB=76.3u
TEXT -776 208 Left 2 ;.ac dec 200 10 100Meg
TEXT -776 248 Left 2 !.tran 0 10u 0 1n
TEXT -776 288 Left 2 ;.noise V(OUTP,OUTN) V_IN dec 100 10 100Meg
TEXT -776 1096 Left 2 ;.step param Cf list 33p 47p 68p 100p 150p 220p 330p
TEXT 240 544 Left 2 ;--- TRAN measurements ---
TEXT 240 576 Left 2 !.meas TRAN adc_out_late FIND V(ADC_OUT) AT 9.5u
TEXT 240 608 Left 2 !.meas TRAN fda_diff_late FIND V(OUTP)-V(OUTN) AT 9.5u
TEXT 240 640 Left 2 !.meas TRAN max_outp MAX V(OUTP) FROM 1u TO 10u
TEXT 240 672 Left 2 !.meas TRAN min_outp MIN V(OUTP) FROM 1u TO 10u
TEXT -776 56 Left 4 ;AL-MAWJA AFE: THS4551 driving AD7380 (single-supply 3.3V)
TEXT -776 96 Left 2 ;TRANSIENT: kickback simulation with AD7380 behavioral model
TEXT -776 120 Left 2 ;Cf = 100p, CS pulsed at 4 MSPS to trigger conversions
