Version 4
SHEET 1 1064 856
SYMBOL ADC/AD7380 960 704 R0
SYMATTR InstName U1
